* NGSPICE file created from device-complete.ext - technology: sky130A

.subckt device-complete gnd clk out_sigma vts ib out_buff vd out vpwr
X0 gnd.t65 a_15881_829# a_15815_855# gnd.t64 sky130_fd_pr__nfet_01v8 ad=0.125 pd=1.01 as=0.0669 ps=0.75 w=0.42 l=0.15
X1 vpwr.t21 a_15706_855# a_15881_829# vpwr.t20 sky130_fd_pr__pfet_01v8_hvt ad=0.213 pd=1.67 as=0.0567 ps=0.69 w=0.42 l=0.15
X2 gnd.t127 gnd.t124 gnd.t126 gnd.t125 sky130_fd_pr__nfet_01v8 ad=1.45 pd=10.6 as=0 ps=0 w=5 l=1
X3 a_15815_855# a_14625_855# a_15706_855# gnd.t3 sky130_fd_pr__nfet_01v8 ad=0.0669 pd=0.75 as=0.0711 ps=0.755 w=0.36 l=0.15
X4 a_15046_855# sigma-delta_0.x1.D vpwr.t9 vpwr.t8 sky130_fd_pr__pfet_01v8_hvt ad=0.0651 pd=0.73 as=0.109 ps=1.36 w=0.42 l=0.15
X5 a_16688_5320# a_16854_3988# gnd.t11 sky130_fd_pr__res_xhigh_po_0p35 l=4.5
X6 buffer_0.a.t15 buffer_0.a.t13 buffer_0.a.t14 gnd.t73 sky130_fd_pr__nfet_01v8 ad=0.465 pd=3.62 as=0 ps=0 w=1.5 l=0.15
X7 sensor_0.a.t7 sensor_0.b.t20 gnd.t43 gnd.t42 sky130_fd_pr__nfet_01v8 ad=0.29 pd=2.58 as=0.29 ps=2.58 w=1 l=1
X8 sensor_0.b.t16 sensor_0.b.t15 gnd.t28 gnd.t27 sky130_fd_pr__nfet_01v8 ad=0.29 pd=2.58 as=0.29 ps=2.58 w=1 l=1
X9 a_15430_3152# a_15596_2320# gnd.t18 sky130_fd_pr__res_xhigh_po_0p35 l=2
X10 vd.t71 buffer_0.b.t16 out_buff.t8 vd.t70 sky130_fd_pr__pfet_01v8 ad=2.17 pd=15.3 as=2.17 ps=15.3 w=15 l=1
X11 a_14791_855# a_14625_855# gnd.t2 gnd.t1 sky130_fd_pr__nfet_01v8 ad=0.109 pd=1.36 as=0.0567 ps=0.69 w=0.42 l=0.15
X12 a_15546_5320# sigma-delta_0.in_int gnd.t92 sky130_fd_pr__res_xhigh_po_0p35 l=4.5
X13 vd.t55 buffer_0.a.t1 buffer_0.a.t2 vd.t54 sky130_fd_pr__pfet_01v8 ad=0.145 pd=1.29 as=0.145 ps=1.29 w=1 l=1
X14 a_15046_855# sigma-delta_0.x1.D gnd.t23 gnd.t22 sky130_fd_pr__nfet_01v8 ad=0.066 pd=0.745 as=0.221 ps=1.89 w=0.42 l=0.15
X15 gnd.t38 sensor_0.b.t21 vtd.t7 gnd.t25 sky130_fd_pr__nfet_01v8 ad=0.29 pd=2.58 as=0.29 ps=2.58 w=1 l=1
X16 sensor_0.c sensor_0.c sensor_0.c vd.t72 sky130_fd_pr__pfet_01v8 ad=0.58 pd=4.58 as=4.64 ps=36.6 w=2 l=1
X17 buffer_0.d.t4 buffer_0.d.t2 buffer_0.d.t3 vd.t34 sky130_fd_pr__pfet_01v8 ad=4.35 pd=30.6 as=0 ps=0 w=15 l=1
X18 a_15403_855# a_15359_1097# a_15237_855# gnd.t17 sky130_fd_pr__nfet_01v8 ad=0.0441 pd=0.63 as=0.14 ps=1.1 w=0.42 l=0.15
X19 sigma-delta_0.in_int a_14600_2320# gnd.t16 sky130_fd_pr__res_xhigh_po_0p35 l=2
X20 gnd.t33 ib.t3 ib.t4 gnd.t32 sky130_fd_pr__nfet_01v8 ad=0.145 pd=1.29 as=0.145 ps=1.29 w=1 l=1
X21 gnd.t123 gnd.t121 gnd.t122 gnd.t96 sky130_fd_pr__nfet_01v8 ad=0.29 pd=2.58 as=0 ps=0 w=1 l=1
X22 a_14550_5320# a_14716_3988# gnd.t137 sky130_fd_pr__res_xhigh_po_0p35 l=4.5
X23 ib.t2 ib.t0 ib.t1 gnd.t30 sky130_fd_pr__nfet_01v8 ad=0.29 pd=2.58 as=0 ps=0 w=1 l=1
X24 vpwr.t7 a_15359_1097# a_15249_1221# vpwr.t6 sky130_fd_pr__pfet_01v8_hvt ad=0.0703 pd=0.755 as=0.116 ps=0.97 w=0.42 l=0.15
X25 vts.t24 vtd.t22 vtd.t23 vts.t23 sky130_fd_pr__pfet_01v8 ad=0.29 pd=2.29 as=0.29 ps=2.29 w=2 l=1
X26 gnd.t53 sensor_0.b.t13 sensor_0.b.t14 gnd.t49 sky130_fd_pr__nfet_01v8 ad=0.29 pd=2.58 as=0.29 ps=2.58 w=1 l=1
X27 a_16356_5320# a_16522_3988# gnd.t128 sky130_fd_pr__res_xhigh_po_0p35 l=4.5
X28 gnd.t85 clk.t0 a_14625_855# gnd.t84 sky130_fd_pr__nfet_01v8 ad=0.0567 pd=0.69 as=0.109 ps=1.36 w=0.42 l=0.15
X29 vtd.t13 vtd.t12 vts.t22 vts.t21 sky130_fd_pr__pfet_01v8 ad=0.29 pd=2.29 as=0.29 ps=2.29 w=2 l=1
X30 gnd.t120 gnd.t118 gnd.t119 gnd.t100 sky130_fd_pr__nfet_01v8 ad=0.29 pd=2.58 as=0 ps=0 w=1 l=1
X31 a_15098_3152# a_15264_2320# gnd.t136 sky130_fd_pr__res_xhigh_po_0p35 l=2
X32 vpwr.t11 clk.t1 a_14625_855# vpwr.t10 sky130_fd_pr__pfet_01v8_hvt ad=0.0864 pd=0.91 as=0.166 ps=1.8 w=0.64 l=0.15
X33 gnd.t135 sensor_0.b.t22 sensor_0.a.t6 gnd.t19 sky130_fd_pr__nfet_01v8 ad=0.29 pd=2.58 as=0.29 ps=2.58 w=1 l=1
X34 gnd.t117 gnd.t115 gnd.t116 gnd.t100 sky130_fd_pr__nfet_01v8 ad=0.29 pd=2.58 as=0 ps=0 w=1 l=1
X35 vtd.t6 sensor_0.b.t23 gnd.t66 gnd.t4 sky130_fd_pr__nfet_01v8 ad=0.29 pd=2.58 as=0.29 ps=2.58 w=1 l=1
X36 vts.t20 vtd.t16 vtd.t17 vts.t19 sky130_fd_pr__pfet_01v8 ad=0.29 pd=2.29 as=0.29 ps=2.29 w=2 l=1
X37 buffer_0.b.t5 buffer_0.b.t4 vd.t69 vd.t68 sky130_fd_pr__pfet_01v8 ad=0.145 pd=1.29 as=0.145 ps=1.29 w=1 l=1
X38 gnd.t48 sigma-delta_0.in_comp sigma-delta_0.x1.D gnd.t47 sky130_fd_pr__nfet_01v8 ad=0.29 pd=2.58 as=0.29 ps=2.58 w=1 l=0.15
X39 vtd.t5 sensor_0.b.t24 gnd.t57 gnd.t4 sky130_fd_pr__nfet_01v8 ad=0.29 pd=2.58 as=0.29 ps=2.58 w=1 l=1
X40 a_17020_5320# sigma-delta_0.x1.Q gnd.t41 sky130_fd_pr__res_xhigh_po_0p35 l=4.5
X41 vtd.t9 vtd.t8 vts.t18 vts.t17 sky130_fd_pr__pfet_01v8 ad=0.29 pd=2.29 as=0.29 ps=2.29 w=2 l=1
X42 vd.t67 buffer_0.b.t6 buffer_0.b.t7 vd.t66 sky130_fd_pr__pfet_01v8 ad=0.145 pd=1.29 as=0.145 ps=1.29 w=1 l=1
X43 sigma-delta_0.x1.Q a_15881_829# vpwr.t17 vpwr.t16 sky130_fd_pr__pfet_01v8_hvt ad=0.28 pd=2.56 as=0.213 ps=1.67 w=1 l=0.15
X44 a_15359_1097# a_15141_855# gnd.t133 gnd.t132 sky130_fd_pr__nfet_01v8 ad=0.0999 pd=0.985 as=0.135 ps=1.15 w=0.64 l=0.15
X45 vd.t37 a_6126_29386# gnd.t58 sky130_fd_pr__res_xhigh_po_0p35 l=5
X46 sensor_0.b.t19 vtd.t24 sensor_0.c vd.t56 sky130_fd_pr__pfet_01v8 ad=0.29 pd=2.29 as=0.58 ps=4.58 w=2 l=1
X47 sigma-delta_0.in_comp gnd.t46 sky130_fd_pr__cap_mim_m3_2 l=27.2 w=27.2
X48 a_16060_855# vpwr.t30 gnd.t52 gnd.t51 sky130_fd_pr__nfet_01v8 ad=0.064 pd=0.725 as=0.125 ps=1.01 w=0.42 l=0.15
X49 vts.t16 vtd.t14 vtd.t15 vts.t15 sky130_fd_pr__pfet_01v8 ad=0.29 pd=2.29 as=0.58 ps=4.58 w=2 l=1
X50 vd.t65 buffer_0.b.t2 buffer_0.b.t3 vd.t64 sky130_fd_pr__pfet_01v8 ad=0.145 pd=1.29 as=0.145 ps=1.29 w=1 l=1
X51 gnd.t76 sensor_0.b.t11 sensor_0.b.t12 gnd.t49 sky130_fd_pr__nfet_01v8 ad=0.29 pd=2.58 as=0.29 ps=2.58 w=1 l=1
X52 buffer_0.a.t12 buffer_0.a.t11 buffer_0.a.t12 vd.t53 sky130_fd_pr__pfet_01v8 ad=0.145 pd=1.29 as=0 ps=0 w=1 l=1
X53 vd.t32 sensor_0.a.t8 sensor_0.a.t9 vd.t31 sky130_fd_pr__pfet_01v8 ad=0.29 pd=2.29 as=0.58 ps=4.58 w=2 l=1
X54 buffer_0.a.t8 buffer_0.a.t7 vd.t52 vd.t51 sky130_fd_pr__pfet_01v8 ad=0.145 pd=1.29 as=0.145 ps=1.29 w=1 l=1
X55 buffer_0.b.t15 vts.t25 buffer_0.c gnd.t131 sky130_fd_pr__nfet_01v8 ad=0.248 pd=1.83 as=0.248 ps=1.83 w=1.5 l=0.15
X56 sensor_0.b.t10 sensor_0.b.t9 gnd.t44 gnd.t27 sky130_fd_pr__nfet_01v8 ad=0.29 pd=2.58 as=0.29 ps=2.58 w=1 l=1
X57 a_14882_5320# a_15048_3988# gnd.t45 sky130_fd_pr__res_xhigh_po_0p35 l=4.5
X58 gnd.t129 sensor_0.b.t25 sensor_0.a.t5 gnd.t19 sky130_fd_pr__nfet_01v8 ad=0.29 pd=2.58 as=0.29 ps=2.58 w=1 l=1
X59 vpwr.t15 a_15881_829# a_15868_1221# vpwr.t14 sky130_fd_pr__pfet_01v8_hvt ad=0.0819 pd=0.81 as=0.0567 ps=0.69 w=0.42 l=0.15
X60 a_15881_829# a_15706_855# a_16060_855# gnd.t80 sky130_fd_pr__nfet_01v8 ad=0.109 pd=1.36 as=0.064 ps=0.725 w=0.42 l=0.15
X61 vts.t7 vts.t4 vts.t6 vts.t5 sky130_fd_pr__pfet_01v8 ad=0.58 pd=4.58 as=0 ps=0 w=2 l=1
X62 buffer_0.d.t11 buffer_0.a.t16 vd.t50 vd.t49 sky130_fd_pr__pfet_01v8 ad=2.17 pd=15.3 as=2.17 ps=15.3 w=15 l=1
X63 out_buff.t10 buffer_0.d.t9 sky130_fd_pr__cap_mim_m3_2 l=15 w=30
X64 gnd.t130 sensor_0.b.t26 vtd.t4 gnd.t25 sky130_fd_pr__nfet_01v8 ad=0.29 pd=2.58 as=0.29 ps=2.58 w=1 l=1
X65 vd.t20 vtd.t25 vts.t12 vd.t19 sky130_fd_pr__pfet_01v8 ad=0.58 pd=4.58 as=0.58 ps=4.58 w=2 l=5
X66 a_15214_5320# a_15380_3988# gnd.t6 sky130_fd_pr__res_xhigh_po_0p35 l=4.5
X67 vd.t18 vd.t15 vd.t17 vd.t16 sky130_fd_pr__pfet_01v8 ad=0.58 pd=4.58 as=0 ps=0 w=2 l=1
X68 gnd.t114 gnd.t112 gnd.t113 gnd.t96 sky130_fd_pr__nfet_01v8 ad=0.29 pd=2.58 as=0 ps=0 w=1 l=1
X69 sensor_0.c vtd.t26 sensor_0.b.t0 vd.t21 sky130_fd_pr__pfet_01v8 ad=0.29 pd=2.29 as=0.29 ps=2.29 w=2 l=1
X70 out_buff.t4 out_buff.t2 out_buff.t3 vd.t24 sky130_fd_pr__pfet_01v8 ad=4.35 pd=30.6 as=0 ps=0 w=15 l=1
X71 sigma-delta_0.in_comp a_15596_2320# gnd.t79 sky130_fd_pr__res_xhigh_po_0p35 l=2
X72 vd.t14 vd.t11 vd.t13 vd.t12 sky130_fd_pr__pfet_01v8 ad=0.29 pd=2.58 as=0 ps=0 w=1 l=1
X73 sensor_0.a.t4 sensor_0.b.t27 gnd.t134 gnd.t42 sky130_fd_pr__nfet_01v8 ad=0.29 pd=2.58 as=0.29 ps=2.58 w=1 l=1
X74 sensor_0.a.t3 sensor_0.b.t28 gnd.t67 gnd.t42 sky130_fd_pr__nfet_01v8 ad=0.29 pd=2.58 as=0.29 ps=2.58 w=1 l=1
X75 sensor_0.a.t11 sensor_0.a.t10 vd.t30 vd.t29 sky130_fd_pr__pfet_01v8 ad=0.58 pd=4.58 as=0.29 ps=2.29 w=2 l=1
X76 gnd.t75 buffer_0.d.t12 out_buff.t5 gnd.t74 sky130_fd_pr__nfet_01v8 ad=0.725 pd=5.29 as=0.725 ps=5.29 w=5 l=1
X77 vd.t73 out.t2 sky130_fd_pr__cap_mim_m3_2 l=24.4 w=24.4
X78 a_14766_3152# a_14600_2320# gnd.t94 sky130_fd_pr__res_xhigh_po_0p35 l=2
X79 buffer_0.c out_buff.t11 buffer_0.a.t0 gnd.t68 sky130_fd_pr__nfet_01v8 ad=0.248 pd=1.83 as=0.248 ps=1.83 w=1.5 l=0.15
X80 out_buff.t6 buffer_0.d.t13 gnd.t83 gnd.t82 sky130_fd_pr__nfet_01v8 ad=0.725 pd=5.29 as=0.725 ps=5.29 w=5 l=1
X81 a_16024_5320# a_16190_3988# gnd.t86 sky130_fd_pr__res_xhigh_po_0p35 l=4.5
X82 sensor_0.b.t8 sensor_0.b.t7 gnd.t29 gnd.t27 sky130_fd_pr__nfet_01v8 ad=0.29 pd=2.58 as=0.29 ps=2.58 w=1 l=1
X83 vd.t10 vd.t8 vd.t10 vd.t9 sky130_fd_pr__pfet_01v8 ad=0.145 pd=1.29 as=0 ps=0 w=1 l=1
X84 gnd.t78 buffer_0.d.t7 buffer_0.d.t8 gnd.t77 sky130_fd_pr__nfet_01v8 ad=0.725 pd=5.29 as=0.725 ps=5.29 w=5 l=1
X85 gnd.t26 sensor_0.b.t29 vtd.t3 gnd.t25 sky130_fd_pr__nfet_01v8 ad=0.29 pd=2.58 as=0.29 ps=2.58 w=1 l=1
X86 a_15249_1221# a_14625_855# a_15141_855# vpwr.t3 sky130_fd_pr__pfet_01v8_hvt ad=0.116 pd=0.97 as=0.0724 ps=0.765 w=0.42 l=0.15
X87 a_16688_5320# a_16522_3988# gnd.t15 sky130_fd_pr__res_xhigh_po_0p35 l=4.5
X88 vd.t7 vd.t4 vd.t6 vd.t5 sky130_fd_pr__pfet_01v8 ad=0.58 pd=4.58 as=0 ps=0 w=2 l=1
X89 vd.t63 buffer_0.b.t8 buffer_0.b.t9 vd.t62 sky130_fd_pr__pfet_01v8 ad=0.145 pd=1.29 as=0.145 ps=1.29 w=1 l=1
X90 buffer_0.d.t6 buffer_0.d.t5 gnd.t37 gnd.t36 sky130_fd_pr__nfet_01v8 ad=0.725 pd=5.29 as=0.725 ps=5.29 w=5 l=1
X91 sensor_0.c sensor_0.a.t12 sensor_0.d vd.t28 sky130_fd_pr__pfet_01v8 ad=0.29 pd=2.29 as=0.29 ps=2.29 w=2 l=1
X92 a_15430_3152# a_15264_2320# gnd.t8 sky130_fd_pr__res_xhigh_po_0p35 l=2
X93 sensor_0.d sensor_0.a.t13 sensor_0.c vd.t27 sky130_fd_pr__pfet_01v8 ad=0.29 pd=2.29 as=0.58 ps=4.58 w=2 l=1
X94 a_15546_5320# a_15380_3988# gnd.t21 sky130_fd_pr__res_xhigh_po_0p35 l=4.5
X95 buffer_0.d.t1 buffer_0.d.t0 buffer_0.d.t1 vd.t22 sky130_fd_pr__pfet_01v8 ad=2.17 pd=15.3 as=0 ps=0 w=15 l=1
X96 gnd.t111 gnd.t109 gnd.t111 gnd.t110 sky130_fd_pr__nfet_01v8 ad=0.725 pd=5.29 as=0 ps=0 w=5 l=1
X97 gnd.t108 gnd.t106 gnd.t107 gnd.t100 sky130_fd_pr__nfet_01v8 ad=0.29 pd=2.58 as=0 ps=0 w=1 l=1
X98 gnd.t105 gnd.t103 gnd.t104 gnd.t96 sky130_fd_pr__nfet_01v8 ad=0.29 pd=2.58 as=0 ps=0 w=1 l=1
X99 a_15249_1221# vpwr.t25 vpwr.t27 vpwr.t26 sky130_fd_pr__pfet_01v8_hvt ad=0.109 pd=1.36 as=0.0703 ps=0.755 w=0.42 l=0.15
X100 gnd.t102 gnd.t99 gnd.t101 gnd.t100 sky130_fd_pr__nfet_01v8 ad=0.29 pd=2.58 as=0 ps=0 w=1 l=1
X101 buffer_0.c buffer_0.c buffer_0.c gnd.t70 sky130_fd_pr__nfet_01v8 ad=0.145 pd=1.29 as=1.08 ps=8.82 w=1 l=1
X102 vd.t3 vd.t0 vd.t2 vd.t1 sky130_fd_pr__pfet_01v8 ad=0.58 pd=4.58 as=0 ps=0 w=2 l=1
X103 a_15881_829# vpwr.t22 vpwr.t24 vpwr.t23 sky130_fd_pr__pfet_01v8_hvt ad=0.0567 pd=0.69 as=0.0819 ps=0.81 w=0.42 l=0.15
X104 vtd.t21 vtd.t20 vts.t14 vts.t13 sky130_fd_pr__pfet_01v8 ad=0.58 pd=4.58 as=0.29 ps=2.29 w=2 l=1
X105 vd.t48 buffer_0.a.t17 buffer_0.d.t10 vd.t47 sky130_fd_pr__pfet_01v8 ad=2.17 pd=15.3 as=2.17 ps=15.3 w=15 l=1
X106 sigma-delta_0.in_int gnd.t59 sky130_fd_pr__cap_mim_m3_2 l=27.2 w=27.2
X107 gnd.t54 sensor_0.b.t5 sensor_0.b.t6 gnd.t49 sky130_fd_pr__nfet_01v8 ad=0.29 pd=2.58 as=0.29 ps=2.58 w=1 l=1
X108 buffer_0.c ib.t5 gnd.t89 gnd.t88 sky130_fd_pr__nfet_01v8 ad=0.145 pd=1.29 as=0.145 ps=1.29 w=1 l=1
X109 vts.t11 vtd.t18 vtd.t19 vts.t10 sky130_fd_pr__pfet_01v8 ad=0.29 pd=2.29 as=0.29 ps=2.29 w=2 l=1
X110 buffer_0.b.t14 buffer_0.b.t12 buffer_0.b.t13 vd.t61 sky130_fd_pr__pfet_01v8 ad=0.29 pd=2.58 as=0 ps=0 w=1 l=1
X111 vd.t36 sigma-delta_0.in_comp sigma-delta_0.x1.D vd.t35 sky130_fd_pr__pfet_01v8 ad=0.87 pd=6.58 as=0.87 ps=6.58 w=3 l=0.15
X112 gnd.t20 sensor_0.b.t30 sensor_0.a.t2 gnd.t19 sky130_fd_pr__nfet_01v8 ad=0.29 pd=2.58 as=0.29 ps=2.58 w=1 l=1
X113 vtd.t2 sensor_0.b.t31 gnd.t5 gnd.t4 sky130_fd_pr__nfet_01v8 ad=0.29 pd=2.58 as=0.29 ps=2.58 w=1 l=1
X114 a_16356_5320# a_16190_3988# gnd.t7 sky130_fd_pr__res_xhigh_po_0p35 l=4.5
X115 vtd.t11 vtd.t10 vts.t9 vts.t8 sky130_fd_pr__pfet_01v8 ad=0.29 pd=2.29 as=0.29 ps=2.29 w=2 l=1
X116 sigma-delta_0.x1.Q a_15881_829# gnd.t63 gnd.t62 sky130_fd_pr__nfet_01v8 ad=0.169 pd=1.82 as=0.169 ps=1.82 w=0.65 l=0.15
X117 vtd.t1 sensor_0.b.t32 gnd.t12 gnd.t4 sky130_fd_pr__nfet_01v8 ad=0.29 pd=2.58 as=0.29 ps=2.58 w=1 l=1
X118 a_15098_3152# a_14932_2320# gnd.t14 sky130_fd_pr__res_xhigh_po_0p35 l=2
X119 a_15706_855# a_14791_855# a_15359_1097# gnd.t72 sky130_fd_pr__nfet_01v8 ad=0.0711 pd=0.755 as=0.0999 ps=0.985 w=0.36 l=0.15
X120 sensor_0.c vtd.t27 sensor_0.b.t17 vd.t33 sky130_fd_pr__pfet_01v8 ad=0.58 pd=4.58 as=0.29 ps=2.29 w=2 l=1
X121 out_buff.t9 buffer_0.b.t17 vd.t60 vd.t59 sky130_fd_pr__pfet_01v8 ad=2.17 pd=15.3 as=2.17 ps=15.3 w=15 l=1
X122 a_15214_5320# a_15048_3988# gnd.t24 sky130_fd_pr__res_xhigh_po_0p35 l=4.5
X123 buffer_0.a.t4 buffer_0.a.t3 vd.t46 vd.t45 sky130_fd_pr__pfet_01v8 ad=0.145 pd=1.29 as=0.145 ps=1.29 w=1 l=1
X124 vd.t74 out.t1 sky130_fd_pr__cap_mim_m3_2 l=24.4 w=24.4
X125 gnd.t61 a_15881_829# a_16445_855# gnd.t60 sky130_fd_pr__nfet_01v8 ad=0.1 pd=0.985 as=0.109 ps=1.36 w=0.42 l=0.15
X126 a_15868_1221# a_14791_855# a_15706_855# vpwr.t19 sky130_fd_pr__pfet_01v8_hvt ad=0.0567 pd=0.69 as=0.0588 ps=0.7 w=0.42 l=0.15
X127 a_14791_855# a_14625_855# vpwr.t2 vpwr.t1 sky130_fd_pr__pfet_01v8_hvt ad=0.166 pd=1.8 as=0.0864 ps=0.91 w=0.64 l=0.15
X128 vd.t44 buffer_0.a.t5 buffer_0.a.t6 vd.t43 sky130_fd_pr__pfet_01v8 ad=0.145 pd=1.29 as=0.145 ps=1.29 w=1 l=1
X129 sensor_0.b.t18 vtd.t28 sensor_0.c vd.t40 sky130_fd_pr__pfet_01v8 ad=0.29 pd=2.29 as=0.29 ps=2.29 w=2 l=1
X130 a_17020_5320# a_16854_3988# gnd.t13 sky130_fd_pr__res_xhigh_po_0p35 l=4.5
X131 gnd.t50 sensor_0.b.t3 sensor_0.b.t4 gnd.t49 sky130_fd_pr__nfet_01v8 ad=0.29 pd=2.58 as=0.29 ps=2.58 w=1 l=1
X132 sensor_0.d vtd.t29 vd.t39 vd.t38 sky130_fd_pr__pfet_01v8 ad=0.58 pd=4.58 as=0.58 ps=4.58 w=2 l=1
X133 buffer_0.a.t10 buffer_0.a.t9 vd.t42 vd.t41 sky130_fd_pr__pfet_01v8 ad=0.145 pd=1.29 as=0.145 ps=1.29 w=1 l=1
X134 a_14882_5320# a_14716_3988# gnd.t91 sky130_fd_pr__res_xhigh_po_0p35 l=4.5
X135 a_15141_855# a_14791_855# a_15046_855# vpwr.t18 sky130_fd_pr__pfet_01v8_hvt ad=0.0724 pd=0.765 as=0.0651 ps=0.73 w=0.42 l=0.15
X136 sensor_0.d sensor_0.a.t14 sensor_0.c vd.t26 sky130_fd_pr__pfet_01v8 ad=0.29 pd=2.29 as=0.29 ps=2.29 w=2 l=1
X137 vts.t3 vts.t0 vts.t2 vts.t1 sky130_fd_pr__pfet_01v8 ad=0.58 pd=4.58 as=0 ps=0 w=2 l=1
X138 buffer_0.b.t11 buffer_0.b.t10 buffer_0.b.t11 gnd.t31 sky130_fd_pr__nfet_01v8 ad=0.248 pd=1.83 as=0 ps=0 w=1.5 l=0.15
X139 sensor_0.b.t2 sensor_0.b.t1 gnd.t35 gnd.t27 sky130_fd_pr__nfet_01v8 ad=0.29 pd=2.58 as=0.29 ps=2.58 w=1 l=1
X140 gnd.t34 sensor_0.b.t33 sensor_0.a.t1 gnd.t19 sky130_fd_pr__nfet_01v8 ad=0.29 pd=2.58 as=0.29 ps=2.58 w=1 l=1
X141 a_16024_5320# sigma-delta_0.in_int gnd.t90 sky130_fd_pr__res_xhigh_po_0p35 l=4.5
X142 vd.t75 out.t0 sky130_fd_pr__cap_mim_m3_2 l=24.4 w=24.4
X143 a_15141_855# a_14625_855# a_15046_855# gnd.t0 sky130_fd_pr__nfet_01v8 ad=0.0594 pd=0.69 as=0.066 ps=0.745 w=0.36 l=0.15
X144 gnd.t40 out_sigma.t2 out.t3 gnd.t39 sky130_fd_pr__nfet_01v8 ad=0.58 pd=4.58 as=0.58 ps=4.58 w=2 l=0.15
X145 sensor_0.c sensor_0.a.t15 sensor_0.d vd.t25 sky130_fd_pr__pfet_01v8 ad=0.58 pd=4.58 as=0.29 ps=2.29 w=2 l=1
X146 gnd.t69 sensor_0.b.t34 vtd.t0 gnd.t25 sky130_fd_pr__nfet_01v8 ad=0.29 pd=2.58 as=0.29 ps=2.58 w=1 l=1
X147 a_15237_855# a_14791_855# a_15141_855# gnd.t71 sky130_fd_pr__nfet_01v8 ad=0.14 pd=1.1 as=0.0594 ps=0.69 w=0.36 l=0.15
X148 out_sigma.t1 a_16445_855# vpwr.t5 vpwr.t4 sky130_fd_pr__pfet_01v8_hvt ad=0.26 pd=2.52 as=0.154 ps=1.34 w=1 l=0.15
X149 vpwr.t13 a_15881_829# a_16445_855# vpwr.t12 sky130_fd_pr__pfet_01v8_hvt ad=0.154 pd=1.34 as=0.166 ps=1.8 w=0.64 l=0.15
X150 gnd.t56 vpwr.t31 a_15403_855# gnd.t55 sky130_fd_pr__nfet_01v8 ad=0.135 pd=1.15 as=0.0441 ps=0.63 w=0.42 l=0.15
X151 out_sigma.t0 a_16445_855# gnd.t10 gnd.t9 sky130_fd_pr__nfet_01v8 ad=0.169 pd=1.82 as=0.1 ps=0.985 w=0.65 l=0.15
X152 a_15706_855# a_14625_855# a_15359_1097# vpwr.t0 sky130_fd_pr__pfet_01v8_hvt ad=0.0588 pd=0.7 as=0.129 ps=1.18 w=0.42 l=0.15
X153 a_14550_5320# out_buff.t7 gnd.t93 sky130_fd_pr__res_xhigh_po_0p35 l=4.5
X154 sensor_0.a.t0 sensor_0.b.t35 gnd.t81 gnd.t42 sky130_fd_pr__nfet_01v8 ad=0.29 pd=2.58 as=0.29 ps=2.58 w=1 l=1
X155 a_14766_3152# a_14932_2320# gnd.t87 sky130_fd_pr__res_xhigh_po_0p35 l=2
X156 a_15359_1097# a_15141_855# vpwr.t29 vpwr.t28 sky130_fd_pr__pfet_01v8_hvt ad=0.129 pd=1.18 as=0.218 ps=2.2 w=0.84 l=0.15
X157 gnd.t98 gnd.t95 gnd.t97 gnd.t96 sky130_fd_pr__nfet_01v8 ad=0.29 pd=2.58 as=0 ps=0 w=1 l=1
X158 buffer_0.b.t1 buffer_0.b.t0 vd.t58 vd.t57 sky130_fd_pr__pfet_01v8 ad=0.145 pd=1.29 as=0.145 ps=1.29 w=1 l=1
X159 out_buff.t1 out_buff.t0 out_buff.t1 vd.t23 sky130_fd_pr__pfet_01v8 ad=2.17 pd=15.3 as=0 ps=0 w=15 l=1
R0 gnd.n164 gnd.n3 16393.5
R1 gnd.n149 gnd.n143 9351.88
R2 gnd.n162 gnd.n11 7246.65
R3 gnd.n164 gnd.n163 4031.02
R4 gnd.n163 gnd.n162 2559.7
R5 gnd.n161 gnd 1652.19
R6 gnd.n142 gnd.n136 1498.93
R7 gnd.n140 gnd.n139 1273.6
R8 gnd.n9 gnd.n8 1273.6
R9 gnd.n162 gnd.n161 1184.7
R10 gnd.n167 gnd.n164 1057.91
R11 gnd.n143 gnd.n142 759.644
R12 gnd.n205 gnd.n204 585
R13 gnd.n259 gnd.n258 585
R14 gnd.n261 gnd.n260 585
R15 gnd.n2 gnd.n1 585
R16 gnd.n30 gnd.n27 560.566
R17 gnd.n38 gnd.n35 547.013
R18 gnd.n131 gnd.n130 523.47
R19 gnd.n28 gnd.t110 348.421
R20 gnd.n137 gnd.t41 342.634
R21 gnd.n169 gnd.t27 334.93
R22 gnd.n267 gnd.t19 331.329
R23 gnd.t9 gnd.n160 330.392
R24 gnd.t1 gnd.t22 307.483
R25 gnd.t31 gnd.t36 305.267
R26 gnd.t49 gnd.n206 298.916
R27 gnd.t73 gnd.t70 263.712
R28 gnd.n207 gnd.t4 262.902
R29 gnd.n43 gnd.n41 256.471
R30 gnd.n130 gnd.n129 247.828
R31 gnd.n51 gnd.n48 242.918
R32 gnd.t62 gnd.t60 226.692
R33 gnd.t80 gnd.t62 226.692
R34 gnd.n160 gnd.n159 224.325
R35 gnd.n235 gnd.t25 223.286
R36 gnd.n49 gnd.t77 217.363
R37 gnd.n59 gnd.t23 215.036
R38 gnd.n39 gnd.t32 214.167
R39 gnd.t41 gnd.t13 204.595
R40 gnd.t15 gnd.t11 204.595
R41 gnd.t128 gnd.t15 204.595
R42 gnd.t7 gnd.t128 204.595
R43 gnd.t86 gnd.t7 204.595
R44 gnd.t90 gnd.t86 204.595
R45 gnd.t71 gnd.t17 200.165
R46 gnd.n39 gnd.t88 198.185
R47 gnd.n6 gnd.t79 195.966
R48 gnd.n49 gnd.t82 194.988
R49 gnd.t64 gnd.t51 179.667
R50 gnd.t100 gnd.n168 172.868
R51 gnd.n237 gnd.n234 163.766
R52 gnd.t55 gnd.t132 159.167
R53 gnd.n269 gnd.n259 156.236
R54 gnd.n69 gnd.t63 154.317
R55 gnd.n216 gnd.n215 153.976
R56 gnd.t68 gnd.t73 153.434
R57 gnd.n168 gnd.n167 152.16
R58 gnd.n214 gnd.n209 150.648
R59 gnd.n157 gnd.n156 149.835
R60 gnd.n216 gnd.n205 148.707
R61 gnd.n51 gnd.n30 147.294
R62 gnd.t8 gnd.t21 142.97
R63 gnd.t136 gnd.t6 142.97
R64 gnd.t14 gnd.t24 142.97
R65 gnd.t87 gnd.t45 142.97
R66 gnd.t94 gnd.t91 142.97
R67 gnd.t16 gnd.t137 142.97
R68 gnd.n41 gnd.n38 133.742
R69 gnd.t72 gnd.t3 131.434
R70 gnd.n71 gnd.n70 128.757
R71 gnd.t96 gnd.n266 127.85
R72 gnd.n6 gnd.t90 126.948
R73 gnd.t132 gnd.t72 119.376
R74 gnd.n235 gnd.t42 118.847
R75 gnd.t60 gnd.t9 116.965
R76 gnd.n67 gnd.n66 116.754
R77 gnd.t3 gnd.t64 115.758
R78 gnd.t0 gnd.t71 115.758
R79 gnd.t22 gnd.t0 114.552
R80 gnd.n266 gnd.n265 110.743
R81 gnd.t51 gnd.t80 109.73
R82 gnd.n11 gnd.n5 108.46
R83 gnd.n98 gnd.n57 107.24
R84 gnd.n85 gnd.n63 107.24
R85 gnd.t125 gnd.t31 107.084
R86 gnd.n5 gnd.t93 103.529
R87 gnd.t84 gnd.t1 101.288
R88 gnd.n66 gnd.t52 100.001
R89 gnd.n156 gnd.n152 98.6358
R90 gnd.t17 gnd.t55 86.8188
R91 gnd.n163 gnd.n4 86.3064
R92 gnd.n207 gnd.t49 79.2311
R93 gnd gnd.t84 78.3781
R94 gnd.n63 gnd.t56 72.8576
R95 gnd.n66 gnd.t65 70.0005
R96 gnd.n171 gnd.n2 65.8829
R97 gnd.n21 gnd.t124 65.675
R98 gnd.n15 gnd.t109 65.5414
R99 gnd.t19 gnd.n262 64.8256
R100 gnd.n28 gnd.t74 63.9308
R101 gnd.t79 gnd.t92 61.6251
R102 gnd.t21 gnd.t18 61.6251
R103 gnd.t6 gnd.t8 61.6251
R104 gnd.t24 gnd.t136 61.6251
R105 gnd.t45 gnd.t14 61.6251
R106 gnd.t91 gnd.t87 61.6251
R107 gnd.t137 gnd.t94 61.6251
R108 gnd.t93 gnd.t16 61.6251
R109 gnd.n63 gnd.t133 60.5809
R110 gnd.n70 gnd.t61 57.1434
R111 gnd.n269 gnd.n261 48.5652
R112 gnd.n57 gnd.t2 38.5719
R113 gnd.n57 gnd.t85 38.5719
R114 gnd.n251 gnd.t95 37.3602
R115 gnd.n254 gnd.t121 37.3602
R116 gnd.n257 gnd.t103 37.3602
R117 gnd.n176 gnd.t115 37.3602
R118 gnd.n179 gnd.t106 37.3602
R119 gnd.n182 gnd.t118 37.3602
R120 gnd.n46 gnd.t125 35.1621
R121 gnd.n87 gnd.n86 34.6358
R122 gnd.n87 gnd.n61 34.6358
R123 gnd.n91 gnd.n61 34.6358
R124 gnd.n92 gnd.n91 34.6358
R125 gnd.n93 gnd.n92 34.6358
R126 gnd.n79 gnd.n78 34.6358
R127 gnd.n80 gnd.n79 34.6358
R128 gnd.n80 gnd.n64 34.6358
R129 gnd.n84 gnd.n64 34.6358
R130 gnd.n74 gnd.n73 34.6358
R131 gnd.n75 gnd.n74 34.6358
R132 gnd.n97 gnd.n59 29.7417
R133 gnd.n73 gnd.n69 27.8593
R134 gnd.n70 gnd.t10 25.4291
R135 gnd.n129 gnd.t39 24.5503
R136 gnd.n99 gnd.n98 24.4919
R137 gnd.n120 gnd.n117 24.3682
R138 gnd.n213 gnd.n210 23.4095
R139 gnd.n136 gnd.t58 22.9965
R140 gnd.t58 gnd.n131 22.9965
R141 gnd.n98 gnd.n97 22.9652
R142 gnd.n163 gnd.t68 20.7778
R143 gnd.n173 gnd.t99 18.6812
R144 gnd.n248 gnd.t112 18.6809
R145 gnd.n75 gnd.n67 17.6946
R146 gnd.n231 gnd.t130 17.4089
R147 gnd.n201 gnd.t50 17.4089
R148 gnd.n242 gnd.t135 17.4084
R149 gnd.n240 gnd.t34 17.4084
R150 gnd.n239 gnd.t129 17.4084
R151 gnd.n242 gnd.t134 17.4084
R152 gnd.n240 gnd.t67 17.4084
R153 gnd.n239 gnd.t81 17.4084
R154 gnd.n231 gnd.t12 17.4079
R155 gnd.n201 gnd.t35 17.4079
R156 gnd.n244 gnd.t43 17.4074
R157 gnd.n244 gnd.t20 17.4074
R158 gnd.n218 gnd.t26 17.4069
R159 gnd.n218 gnd.t66 17.4055
R160 gnd.n247 gnd.t114 17.405
R161 gnd.n247 gnd.t113 17.405
R162 gnd.n250 gnd.t98 17.405
R163 gnd.n250 gnd.t97 17.405
R164 gnd.n253 gnd.t123 17.405
R165 gnd.n253 gnd.t122 17.405
R166 gnd.n256 gnd.t105 17.405
R167 gnd.n256 gnd.t104 17.405
R168 gnd.n172 gnd.t102 17.405
R169 gnd.n172 gnd.t101 17.405
R170 gnd.n175 gnd.t117 17.405
R171 gnd.n175 gnd.t116 17.405
R172 gnd.n178 gnd.t108 17.405
R173 gnd.n178 gnd.t107 17.405
R174 gnd.n181 gnd.t120 17.405
R175 gnd.n181 gnd.t119 17.405
R176 gnd.n13 gnd.t48 17.405
R177 gnd.n220 gnd.t5 17.4034
R178 gnd.n219 gnd.t38 17.4034
R179 gnd.n226 gnd.t57 17.4034
R180 gnd.n225 gnd.t69 17.4034
R181 gnd.n196 gnd.t44 17.4034
R182 gnd.n195 gnd.t76 17.4034
R183 gnd.n190 gnd.t29 17.4034
R184 gnd.n189 gnd.t54 17.4034
R185 gnd.n185 gnd.t28 17.4034
R186 gnd.n184 gnd.t53 17.4034
R187 gnd.n31 gnd.t89 17.4005
R188 gnd.n31 gnd.t33 17.4005
R189 gnd.n93 gnd.n59 14.6829
R190 gnd.n48 gnd.n43 13.5534
R191 gnd.n36 gnd.t30 12.7866
R192 gnd.n46 gnd.t131 11.1883
R193 gnd.n71 gnd.n69 10.9075
R194 gnd.n267 gnd.t96 10.8047
R195 gnd.n13 gnd.n12 9.33321
R196 gnd.n171 gnd.n170 9.3005
R197 gnd.n170 gnd.n169 9.3005
R198 gnd.n216 gnd.n208 9.3005
R199 gnd.n208 gnd.n207 9.3005
R200 gnd.n237 gnd.n236 9.3005
R201 gnd.n236 gnd.n235 9.3005
R202 gnd.n269 gnd.n268 9.3005
R203 gnd.n268 gnd.n267 9.3005
R204 gnd.n125 gnd.t40 8.70236
R205 gnd.n86 gnd.n85 7.90638
R206 gnd.n169 gnd.t100 7.20328
R207 gnd.n21 gnd.t127 6.44128
R208 gnd.n53 gnd.n52 5.41306
R209 gnd.n33 gnd.n32 5.41306
R210 gnd.n95 gnd.n59 4.6505
R211 gnd.n73 gnd.n72 4.6505
R212 gnd.n74 gnd.n68 4.6505
R213 gnd.n76 gnd.n75 4.6505
R214 gnd.n78 gnd.n77 4.6505
R215 gnd.n79 gnd.n65 4.6505
R216 gnd.n81 gnd.n80 4.6505
R217 gnd.n82 gnd.n64 4.6505
R218 gnd.n84 gnd.n83 4.6505
R219 gnd.n86 gnd.n62 4.6505
R220 gnd.n88 gnd.n87 4.6505
R221 gnd.n89 gnd.n61 4.6505
R222 gnd.n91 gnd.n90 4.6505
R223 gnd.n92 gnd.n60 4.6505
R224 gnd.n94 gnd.n93 4.6505
R225 gnd.n97 gnd.n96 4.6505
R226 gnd.n98 gnd.n58 4.6505
R227 gnd.n55 gnd.n54 4.5005
R228 gnd.n56 gnd.n54 4.5005
R229 gnd.n18 gnd.t83 3.4805
R230 gnd.n18 gnd.t78 3.4805
R231 gnd.n16 gnd.t111 3.4805
R232 gnd.n16 gnd.t75 3.4805
R233 gnd.n22 gnd.t37 3.4805
R234 gnd.n22 gnd.t126 3.4805
R235 gnd.n17 gnd.n15 3.21916
R236 gnd.n23 gnd.n21 2.95318
R237 gnd.n78 gnd.n67 2.63579
R238 gnd.n125 gnd 2.5773
R239 gnd.n103 gnd.n53 2.43634
R240 gnd.n100 gnd.n54 2.25328
R241 gnd gnd.n0 2.00418
R242 gnd.n104 gnd.n14 1.93469
R243 gnd.n85 gnd.n84 1.88285
R244 gnd gnd.n102 1.72422
R245 gnd.n33 gnd.n31 1.41862
R246 gnd.n104 gnd.n103 1.22706
R247 gnd gnd.n0 1.2022
R248 gnd.n32 gnd 0.793114
R249 gnd.n273 gnd.n272 0.685777
R250 gnd.n20 gnd.n17 0.6455
R251 gnd.n24 gnd.n23 0.62925
R252 gnd.n106 gnd.n104 0.575502
R253 gnd.n151 gnd.n150 0.54125
R254 gnd.n152 gnd.n151 0.541165
R255 gnd.n224 gnd.n218 0.447415
R256 gnd.n230 gnd.n224 0.438
R257 gnd.n232 gnd.n230 0.438
R258 gnd.n52 gnd.n25 0.425505
R259 gnd.n194 gnd.n188 0.375501
R260 gnd.n233 gnd.n232 0.375501
R261 gnd.n200 gnd.n194 0.3755
R262 gnd.n202 gnd.n200 0.3755
R263 gnd.n241 gnd.n239 0.373217
R264 gnd.n243 gnd.n241 0.371401
R265 gnd.n245 gnd.n243 0.369555
R266 gnd.n128 gnd.n124 0.366293
R267 gnd.n115 gnd.n114 0.365897
R268 gnd.n129 gnd.n115 0.365897
R269 gnd.n124 gnd.n123 0.365897
R270 gnd.n148 gnd.n147 0.347558
R271 gnd.n147 gnd.n146 0.347269
R272 gnd.n246 gnd.n245 0.338503
R273 gnd.n203 gnd.n202 0.330858
R274 gnd.n203 gnd.n183 0.290469
R275 gnd.n233 gnd.n217 0.281539
R276 gnd.n14 gnd.t46 0.266467
R277 gnd.n238 gnd.n233 0.245825
R278 gnd.n271 gnd.n246 0.244548
R279 gnd.n273 gnd.n0 0.230614
R280 gnd.n246 gnd.n238 0.180349
R281 gnd.n217 gnd.n203 0.156539
R282 gnd.n72 gnd.n71 0.144332
R283 gnd.n111 gnd.n110 0.1305
R284 gnd.t58 gnd.n111 0.1305
R285 gnd.n133 gnd.n132 0.1305
R286 gnd.t58 gnd.n133 0.1305
R287 gnd.n72 gnd.n68 0.120292
R288 gnd.n76 gnd.n68 0.120292
R289 gnd.n77 gnd.n76 0.120292
R290 gnd.n77 gnd.n65 0.120292
R291 gnd.n81 gnd.n65 0.120292
R292 gnd.n82 gnd.n81 0.120292
R293 gnd.n83 gnd.n82 0.120292
R294 gnd.n83 gnd.n62 0.120292
R295 gnd.n88 gnd.n62 0.120292
R296 gnd.n89 gnd.n88 0.120292
R297 gnd.n90 gnd.n89 0.120292
R298 gnd.n90 gnd.n60 0.120292
R299 gnd.n94 gnd.n60 0.120292
R300 gnd.n95 gnd.n94 0.120292
R301 gnd.n96 gnd.n95 0.120292
R302 gnd.n96 gnd.n58 0.120292
R303 gnd.n154 gnd.n153 0.10956
R304 gnd.t47 gnd.n154 0.10956
R305 gnd.n155 gnd.t47 0.10956
R306 gnd.n156 gnd.n155 0.10956
R307 gnd.n119 gnd.n118 0.10956
R308 gnd.n122 gnd.n121 0.10956
R309 gnd.t39 gnd.n122 0.10956
R310 gnd.n120 gnd.n119 0.109135
R311 gnd.n148 gnd.n145 0.0849523
R312 gnd.n145 gnd.n144 0.0845034
R313 gnd.n274 gnd.n273 0.0772045
R314 gnd.n274 gnd 0.0755
R315 gnd.n58 gnd.n55 0.0734167
R316 gnd.n249 gnd.n248 0.073412
R317 gnd.n174 gnd.n173 0.0734113
R318 gnd.n25 gnd.n24 0.063
R319 gnd.n175 gnd.n174 0.0610469
R320 gnd.n176 gnd.n175 0.0610469
R321 gnd.n178 gnd.n177 0.0610469
R322 gnd.n179 gnd.n178 0.0610469
R323 gnd.n181 gnd.n180 0.0610469
R324 gnd.n182 gnd.n181 0.0610469
R325 gnd.n250 gnd.n249 0.0610469
R326 gnd.n251 gnd.n250 0.0610469
R327 gnd.n253 gnd.n252 0.0610469
R328 gnd.n254 gnd.n253 0.0610469
R329 gnd.n256 gnd.n255 0.0610469
R330 gnd.n257 gnd.n256 0.0610469
R331 gnd.n270 gnd.n257 0.0573558
R332 gnd.n183 gnd.n182 0.0573547
R333 gnd.n271 gnd.n270 0.0464211
R334 gnd.n38 gnd.n37 0.0431634
R335 gnd.n37 gnd.n36 0.0431634
R336 gnd.n177 gnd.n176 0.0426875
R337 gnd.n180 gnd.n179 0.0426875
R338 gnd.n252 gnd.n251 0.0426875
R339 gnd.n255 gnd.n254 0.0426875
R340 gnd.n158 gnd.n157 0.0425017
R341 gnd.n159 gnd.n158 0.0425017
R342 gnd.n272 gnd 0.0395625
R343 gnd.n30 gnd.n29 0.0388129
R344 gnd.n29 gnd.n28 0.0388129
R345 gnd gnd.n274 0.0345909
R346 gnd.n56 gnd 0.0330521
R347 gnd.n103 gnd 0.03175
R348 gnd.n173 gnd.n172 0.031274
R349 gnd.n248 gnd.n247 0.0312734
R350 gnd.n101 gnd.n55 0.0265417
R351 gnd.n117 gnd.n116 0.0264102
R352 gnd.n99 gnd 0.0226354
R353 gnd.n43 gnd.n42 0.0215341
R354 gnd.n42 gnd.n4 0.0215341
R355 gnd.n24 gnd.n20 0.01675
R356 gnd.n232 gnd.n231 0.0153409
R357 gnd.n229 gnd.n227 0.0129048
R358 gnd.n101 gnd.n100 0.0114272
R359 gnd.n223 gnd.n221 0.0114167
R360 gnd.n100 gnd.n99 0.0113582
R361 gnd.n102 gnd.n54 0.0110001
R362 gnd.n48 gnd.n47 0.00984699
R363 gnd.n47 gnd.n46 0.00984699
R364 gnd.n215 gnd.n214 0.0092427
R365 gnd.n214 gnd.n213 0.0092427
R366 gnd.n264 gnd.n263 0.00883856
R367 gnd.n265 gnd.n264 0.00883856
R368 gnd.n166 gnd.n165 0.00883856
R369 gnd.n167 gnd.n166 0.00883856
R370 gnd.n107 gnd.n13 0.00867757
R371 gnd.n202 gnd.n201 0.00792873
R372 gnd.n113 gnd.n112 0.00762598
R373 gnd.n131 gnd.n113 0.00762598
R374 gnd.n135 gnd.n134 0.00762598
R375 gnd.n136 gnd.n135 0.00762598
R376 gnd.n27 gnd.n26 0.007537
R377 gnd.n35 gnd.n34 0.007537
R378 gnd.n41 gnd.n40 0.00701261
R379 gnd.n40 gnd.n39 0.00701261
R380 gnd.n51 gnd.n50 0.00701261
R381 gnd.n50 gnd.n49 0.00701261
R382 gnd.n107 gnd.n106 0.00634112
R383 gnd gnd.n56 0.00570833
R384 gnd.n199 gnd.n197 0.00546432
R385 gnd.n45 gnd.n44 0.00517349
R386 gnd.n46 gnd.n45 0.00517349
R387 gnd.n8 gnd.n7 0.00517349
R388 gnd.n7 gnd.n6 0.00517349
R389 gnd.n141 gnd.n140 0.00517349
R390 gnd.n142 gnd.n141 0.00517349
R391 gnd.n186 gnd.n184 0.00502806
R392 gnd.n191 gnd.n189 0.00502806
R393 gnd.n197 gnd.n195 0.00502805
R394 gnd.n221 gnd.n219 0.00502803
R395 gnd.n227 gnd.n225 0.00502803
R396 gnd.n212 gnd.n211 0.00487141
R397 gnd.n213 gnd.n212 0.00487141
R398 gnd.n150 gnd.n109 0.00441022
R399 gnd.n10 gnd.n9 0.0043402
R400 gnd.n11 gnd.n10 0.0043402
R401 gnd.n139 gnd.n138 0.0043402
R402 gnd.n138 gnd.n137 0.0043402
R403 gnd.n186 gnd.n185 0.00402807
R404 gnd.n191 gnd.n190 0.00402806
R405 gnd.n197 gnd.n196 0.00402806
R406 gnd.n221 gnd.n220 0.00402804
R407 gnd.n227 gnd.n226 0.00402803
R408 gnd.n193 gnd.n191 0.00397623
R409 gnd.n109 gnd.n108 0.00391284
R410 gnd.n108 gnd.n107 0.00391159
R411 gnd.n20 gnd.n19 0.00371923
R412 gnd.n17 gnd.n16 0.00294771
R413 gnd.n23 gnd.n22 0.00294771
R414 gnd.n14 gnd.t59 0.00288363
R415 gnd.n188 gnd.n186 0.00248813
R416 gnd.n272 gnd.n271 0.00245312
R417 gnd.n128 gnd.n127 0.00236777
R418 gnd.n19 gnd.n18 0.00217489
R419 gnd.t39 gnd.n120 0.00192099
R420 gnd.n127 gnd.n126 0.00186816
R421 gnd.n270 gnd.n269 0.00152216
R422 gnd.n183 gnd.n171 0.00152195
R423 gnd.n41 gnd.n33 0.00148887
R424 gnd.n52 gnd.n51 0.00148887
R425 gnd.n229 gnd.n228 0.00138337
R426 gnd.n223 gnd.n222 0.00138109
R427 gnd.n199 gnd.n198 0.00134613
R428 gnd.n193 gnd.n192 0.00134049
R429 gnd.n188 gnd.n187 0.001335
R430 gnd.n126 gnd.n125 0.00124275
R431 gnd.n243 gnd.n242 0.00121065
R432 gnd.n241 gnd.n240 0.001204
R433 gnd.n149 gnd.n148 0.00104118
R434 gnd.n102 gnd.n101 0.00100955
R435 gnd.n150 gnd.n149 0.00100261